Version 4
SHEET 1 880 680
WIRE 208 48 208 16
WIRE 240 48 208 48
WIRE 80 128 48 128
WIRE 80 176 80 128
WIRE 176 176 80 176
WIRE -192 208 -256 208
WIRE -128 208 -192 208
WIRE -192 240 -192 208
WIRE 208 272 208 144
WIRE 208 272 80 272
WIRE 176 304 176 176
WIRE 208 304 176 304
WIRE -192 320 -256 320
WIRE -128 320 -192 320
WIRE 80 320 80 272
WIRE 80 320 48 320
WIRE -192 352 -192 320
WIRE 240 400 208 400
WIRE 208 432 208 400
FLAG 48 128 DTR
FLAG 48 320 RTS
FLAG 240 48 EN
FLAG 240 400 BOOT
FLAG -192 352 0
FLAG -128 320 RTS
FLAG -256 208 DTR
FLAG -192 208 3v3
FLAG 208 -64 3v3
FLAG 208 512 3v3
SYMBOL res 176 112 R90
WINDOW 0 0 56 VBottom 2
WINDOW 3 32 56 VTop 2
SYMATTR InstName R1
SYMATTR Value 10k
SYMBOL res 176 304 R90
WINDOW 0 0 56 VBottom 2
WINDOW 3 32 56 VTop 2
SYMATTR InstName R2
SYMATTR Value 10k
SYMBOL nmos 160 48 R0
SYMATTR InstName M1
SYMATTR Value AO6408
SYMBOL nmos 160 400 M180
SYMATTR InstName M2
SYMATTR Value AO6408
SYMBOL voltage -192 224 R0
SYMATTR InstName V1
SYMATTR Value 3.3
SYMBOL res 192 -80 R0
SYMATTR InstName R3
SYMATTR Value 10k
SYMBOL res 192 416 R0
SYMATTR InstName R4
SYMATTR Value 10k
TEXT -288 -224 Left 2 ;Based on:\nhttps://dl.espressif.com/dl/schematics/SCH_ESP32-C3-DEVKITM-1_V1_20200915A.pdf\nhttps://dl.espressif.com/dl/schematics/esp32_devkitc_v4-sch-20180607a.pdf
TEXT -236 462 Left 2 !.tran 1
