Version 4
SHEET 1 880 680
WIRE -64 0 -128 0
WIRE 64 0 -64 0
WIRE 112 0 64 0
WIRE 240 0 112 0
WIRE 240 80 144 80
WIRE 144 96 144 80
WIRE 144 96 0 96
WIRE 192 96 176 96
WIRE 0 112 0 96
WIRE 32 112 0 112
WIRE 64 128 64 0
WIRE 0 144 0 112
WIRE 32 144 0 144
WIRE 176 160 176 96
WIRE 176 160 96 160
WIRE -64 176 -64 80
WIRE 32 176 -64 176
WIRE 240 208 240 176
WIRE 112 224 112 0
WIRE -128 272 -128 0
WIRE -32 352 -128 352
WIRE 64 352 64 192
WIRE 64 352 -32 352
WIRE 240 352 64 352
FLAG -32 352 0
SYMBOL pmos 192 176 M180
SYMATTR InstName M1
SYMATTR Value AO6407
SYMBOL res 224 -16 R0
SYMATTR InstName R1
SYMATTR Value .5
SYMBOL res 224 192 R0
SYMATTR InstName R4
SYMATTR Value .1
SYMBOL cap 224 288 R0
SYMATTR InstName C1
SYMATTR Value .33
SYMATTR SpiceLine IC=0
SYMBOL voltage -128 256 R0
SYMATTR InstName V1
SYMATTR Value 5
SYMBOL voltage -64 -16 R0
SYMATTR InstName V2
SYMATTR Value 1
SYMBOL Opamps\\AD8605 64 96 R0
SYMATTR InstName U1
TEXT -162 376 Left 2 !.tran 0 5 0 .05
