Version 4
SHEET 1 880 680
WIRE 384 80 240 80
WIRE 512 112 448 112
WIRE 240 160 240 80
WIRE 240 160 208 160
WIRE 144 208 80 208
WIRE 384 208 384 80
WIRE 384 208 320 208
WIRE 448 208 448 176
WIRE 448 208 384 208
WIRE 512 288 512 192
FLAG 512 288 0
FLAG 80 288 0
FLAG 448 208 O
SYMBOL njf 144 160 M90
SYMATTR InstName J1
SYMATTR Value J112
SYMBOL njf 448 -96 R90
SYMATTR InstName J2
SYMATTR Value J112
SYMBOL diode 464 176 R180
WINDOW 0 24 64 Left 2
WINDOW 3 24 0 Left 2
SYMATTR InstName D1
SYMATTR Value 1N4148
SYMBOL voltage 512 96 R0
SYMATTR InstName V1
SYMATTR Value 3.3
SYMBOL voltage 80 368 R0
WINDOW 123 0 0 Left 0
WINDOW 39 0 0 Left 0
SYMATTR InstName V2
SYMATTR Value PULSE(0 30 .01 0.001 0.001 0.1 0.2)
SYMBOL res 336 192 R90
WINDOW 0 0 56 VBottom 2
WINDOW 3 32 56 VTop 2
SYMATTR InstName R1
SYMATTR Value 100
SYMBOL voltage 80 192 R0
WINDOW 123 0 0 Left 0
WINDOW 39 0 0 Left 0
SYMATTR InstName V3
SYMATTR Value SINE(15 30 10)
TEXT -58 2 Left 2 !.tran 1
TEXT -56 -32 Left 2 !;.tf V(O) V2
