Version 4
SHEET 1 880 680
WIRE 176 16 48 16
WIRE 304 16 176 16
WIRE 368 16 304 16
WIRE 512 16 448 16
WIRE 640 16 576 16
WIRE 48 112 48 16
WIRE 0 128 -80 128
WIRE 176 128 176 96
WIRE 640 128 640 16
WIRE 304 144 304 16
WIRE 0 192 0 128
WIRE -80 240 -80 208
WIRE 48 240 48 208
WIRE 48 240 -80 240
WIRE 176 240 176 208
WIRE 176 240 48 240
WIRE 304 240 304 208
WIRE 304 240 176 240
WIRE 640 240 640 208
WIRE 640 240 304 240
FLAG 176 240 0
SYMBOL voltage 176 112 R0
WINDOW 123 0 0 Left 0
WINDOW 39 0 0 Left 0
SYMATTR InstName V1
SYMATTR Value 32
SYMBOL ind 160 0 R0
SYMATTR InstName L1
SYMATTR Value 400n
SYMBOL cap 320 208 R180
WINDOW 0 24 56 Left 2
WINDOW 3 24 8 Left 2
SYMATTR InstName C1
SYMATTR Value 175p
SYMBOL ind 464 0 R90
WINDOW 0 5 56 VBottom 2
WINDOW 3 32 56 VTop 2
SYMATTR InstName L2
SYMATTR Value 547n
SYMBOL cap 576 0 R90
WINDOW 0 0 32 VBottom 2
WINDOW 3 32 32 VTop 2
SYMATTR InstName C2
SYMATTR Value 252p
SYMBOL res 624 112 R0
SYMATTR InstName R1
SYMATTR Value 46.6
SYMBOL nmos 0 112 R0
SYMATTR InstName M1
SYMATTR Value AONR66922
SYMBOL voltage -80 112 R0
WINDOW 3 -106 154 Left 2
WINDOW 123 0 0 Left 0
WINDOW 39 0 0 Left 0
SYMATTR InstName V2
SYMATTR Value PULSE(0 5 0 0 0 36.8731563e-9 73.7463127e-9)
TEXT -188 286 Left 2 !.tran 0 17.37463127e-7 10e-7
