Version 4
SHEET 1 880 680
WIRE 448 48 224 48
WIRE -128 80 -224 80
WIRE 224 80 224 48
WIRE 256 80 224 80
WIRE 384 96 352 96
WIRE -224 112 -224 80
WIRE 160 112 160 80
WIRE 256 112 160 112
WIRE 160 144 160 112
WIRE 0 176 -32 176
WIRE 96 192 64 192
WIRE 0 208 -64 208
WIRE 448 240 448 208
WIRE -32 272 -32 176
WIRE 160 272 160 240
WIRE 160 272 -32 272
WIRE 160 304 160 272
FLAG 160 384 0
FLAG 160 0 +V
FLAG 32 224 0
FLAG 32 160 +V
FLAG -64 208 Vref
FLAG 448 -32 +V
FLAG 288 64 +V
FLAG 288 128 0
FLAG 448 400 0
FLAG -224 0 +V
FLAG -128 0 Vref
FLAG -224 112 0
SYMBOL res 144 -16 R0
SYMATTR InstName R1
SYMATTR Value 1k
SYMBOL npn 96 144 R0
SYMATTR InstName Q1
SYMATTR Value 2N3904
SYMBOL res 144 288 R0
SYMATTR InstName R2
SYMATTR Value 1k
SYMBOL Opamps\\AD8030 32 128 R0
SYMATTR InstName U1
SYMBOL Opamps\\AD8030 288 32 R0
SYMATTR InstName U2
SYMBOL pnp 384 144 M180
SYMATTR InstName Q2
SYMATTR Value 2N3906
SYMBOL res 432 -48 R0
SYMATTR InstName R3
SYMATTR Value 1k
SYMBOL res 432 224 R0
SYMATTR InstName R4
SYMATTR Value 1
SYMBOL voltage 448 304 R0
SYMATTR InstName V1
SYMATTR Value -100
SYMBOL voltage -224 -16 R0
SYMATTR InstName V2
SYMATTR Value 10
SYMBOL voltage -128 -16 R0
SYMATTR InstName V3
SYMATTR Value 4
SYMBOL diode 432 144 R0
SYMATTR InstName D1
SYMATTR Value 1N914
TEXT -258 408 Left 2 !.tran 10m
