Version 4
SHEET 1 1120 680
WIRE 576 -96 416 -96
WIRE 672 -96 640 -96
WIRE 800 -96 672 -96
WIRE 288 32 -48 32
WIRE 416 32 416 -32
WIRE 416 32 384 32
WIRE 480 32 416 32
WIRE 544 32 480 32
WIRE 640 32 624 32
WIRE 672 32 672 -32
WIRE 672 32 640 32
WIRE 736 32 672 32
WIRE 768 32 736 32
WIRE 880 32 848 32
WIRE 1008 32 880 32
WIRE 880 64 880 32
WIRE 288 112 288 32
WIRE 320 112 288 112
WIRE 384 112 384 32
WIRE 544 112 544 32
WIRE 576 112 544 112
WIRE 640 112 640 32
WIRE -48 208 -48 32
WIRE 480 224 480 32
WIRE 80 288 -48 288
WIRE 288 288 80 288
WIRE 480 288 384 288
WIRE 544 288 480 288
WIRE 736 288 736 32
WIRE 736 288 640 288
WIRE 80 320 80 288
WIRE 288 368 288 288
WIRE 384 368 384 288
WIRE 384 368 352 368
WIRE 544 368 544 288
WIRE 640 368 640 288
WIRE 640 368 608 368
WIRE 320 448 224 448
WIRE 512 448 384 448
WIRE 576 448 512 448
WIRE 800 448 800 -96
WIRE 800 448 640 448
WIRE 480 512 480 288
WIRE 512 512 480 512
FLAG 80 320 0
FLAG 304 240 G1A
FLAG 560 240 G2A
FLAG 288 368 S1A
FLAG 544 368 S2A
FLAG -736 144 S1A
FLAG -736 64 G1A
FLAG -480 144 S2A
FLAG -480 64 G2A
FLAG -736 -64 S1B
FLAG -736 -144 G1B
FLAG -480 -64 S2B
FLAG -480 -144 G2B
FLAG 368 -16 G1B
FLAG 624 -16 G2B
FLAG 384 112 S1B
FLAG 640 112 S2B
FLAG 880 128 0
FLAG 880 32 out
FLAG 1008 112 0
FLAG 736 32 sw
FLAG 224 528 0
FLAG 512 448 B2
FLAG 672 -96 B3
FLAG 416 -96 B4
SYMBOL nmos 384 240 R90
SYMATTR InstName M1
SYMATTR Value fet
SYMBOL voltage -48 192 R0
WINDOW 123 0 0 Left 0
WINDOW 39 0 0 Left 0
SYMATTR InstName V2
SYMATTR Value 5
SYMBOL res 992 16 R0
SYMATTR InstName R1
SYMATTR Value 100
SYMBOL nmos 640 240 R90
SYMATTR InstName M2
SYMATTR Value fet
SYMBOL cap 464 224 R0
SYMATTR InstName C2
SYMATTR Value {Cf}
SYMBOL bv -736 -160 R0
SYMATTR InstName B3
SYMATTR Value V=V(G1A)-V(S1A) < 0.5
SYMBOL bv -480 -160 R0
SYMATTR InstName B4
SYMATTR Value V=V(G2A)-V(S2A) < 0.5
SYMBOL nmos 288 -16 M90
SYMATTR InstName M4
SYMATTR Value fet
SYMBOL nmos 544 -16 M90
SYMATTR InstName M5
SYMATTR Value fet
SYMBOL ind 752 48 R270
WINDOW 0 32 56 VTop 2
WINDOW 3 5 56 VBottom 2
SYMATTR InstName L1
SYMATTR Value 10µ
SYMBOL cap 864 64 R0
SYMATTR InstName C3
SYMATTR Value 15µ
SYMBOL voltage -736 48 R0
WINDOW 123 0 0 Left 0
WINDOW 39 0 0 Left 0
SYMATTR InstName V1
SYMATTR Value PULSE(1 0 0 .01u .01u 0.5u 1u)
SYMBOL voltage -480 48 R0
WINDOW 123 0 0 Left 0
WINDOW 39 0 0 Left 0
SYMATTR InstName V3
SYMATTR Value PULSE(1 0 0.5u .01u .01u 0.5u 1u)
SYMBOL voltage 224 432 R0
WINDOW 123 0 0 Left 0
WINDOW 39 0 0 Left 0
SYMATTR InstName V4
SYMATTR Value 6
SYMBOL diode 320 464 R270
WINDOW 0 32 32 VTop 2
WINDOW 3 0 32 VBottom 2
SYMATTR InstName D1
SYMBOL diode 576 464 R270
WINDOW 0 32 32 VTop 2
WINDOW 3 0 32 VBottom 2
SYMATTR InstName D2
SYMBOL diode 640 -112 R90
WINDOW 0 0 32 VBottom 2
WINDOW 3 32 32 VTop 2
SYMATTR InstName D3
SYMBOL cap 496 448 R0
SYMATTR InstName C1
SYMATTR Value {Cb}
SYMBOL cap 656 -96 R0
SYMATTR InstName C4
SYMATTR Value {Cb}
SYMBOL cap 400 -96 R0
SYMATTR InstName C5
SYMATTR Value {Cb}
SYMBOL diode 288 384 R270
WINDOW 0 32 32 VTop 2
WINDOW 3 0 32 VBottom 2
SYMATTR InstName D4
SYMATTR Value md
SYMBOL diode 544 384 R270
WINDOW 0 32 32 VTop 2
WINDOW 3 0 32 VBottom 2
SYMATTR InstName D5
SYMATTR Value md
SYMBOL diode 640 96 R90
WINDOW 0 0 32 VBottom 2
WINDOW 3 32 32 VTop 2
SYMATTR InstName D6
SYMATTR Value md
SYMBOL diode 384 96 R90
WINDOW 0 0 32 VBottom 2
WINDOW 3 32 32 VTop 2
SYMATTR InstName D7
SYMATTR Value md
TEXT -746 612 Left 2 !.tran 0 1000u 0u
TEXT -744 544 Left 2 !.model fet VDMOS(Rd=3m Rs=3m Vto=0.5 Kp=60 Cgdmax=1.9n Cgdmin=50p Cgs=3.1n Cjo=1n Is=5.5p Rb=5.7m)
TEXT -744 568 Left 2 !.param Cf=7u Cb=0.1u
TEXT -744 520 Left 2 !.model md D(Ron=.01 Roff=1Meg Vfwd=1.5)
TEXT -744 496 Left 2 !.model d D(Ron=.01 Roff=1Meg Vfwd=0.5)
