Version 4
SHEET 1 880 680
WIRE 192 16 -48 16
WIRE 192 128 192 96
WIRE -48 208 -48 16
WIRE 144 208 80 208
WIRE 80 288 -48 288
WIRE 192 288 192 224
WIRE 192 288 80 288
WIRE 80 320 80 288
FLAG 80 320 0
SYMBOL nmos 144 128 R0
SYMATTR InstName M1
SYMATTR Value FET
SYMBOL voltage 80 192 R0
WINDOW 123 0 0 Left 0
WINDOW 39 0 0 Left 0
SYMATTR InstName V1
SYMATTR Value PULSE(0 3 0 0 0 .05 .1)
SYMBOL voltage -48 192 R0
WINDOW 123 0 0 Left 0
WINDOW 39 0 0 Left 0
SYMATTR InstName V2
SYMATTR Value 5
SYMBOL res 176 0 R0
SYMATTR InstName R1
SYMATTR Value 5
TEXT -82 308 Left 2 !.tran 1
TEXT -744 400 Left 2 !.model FET VDMOS(Rd=3m Rs=3m Vto=1.0 Kp=60 Cgdmax=1.9n Cgdmin=50p Cgs=3.1n Cjo=1n Is=5.5p Rb=5.7m)
