Version 4
SHEET 1 1120 680
WIRE 80 32 -48 32
WIRE 288 32 80 32
WIRE 304 32 288 32
WIRE 480 32 384 32
WIRE 544 32 480 32
WIRE 736 32 640 32
WIRE 768 32 736 32
WIRE 880 32 848 32
WIRE 1008 32 880 32
WIRE 288 64 288 32
WIRE 544 64 544 32
WIRE 880 64 880 32
WIRE -48 208 -48 32
WIRE 80 224 80 32
WIRE 480 224 480 32
WIRE 80 288 -48 288
WIRE 288 288 80 288
WIRE 480 288 384 288
WIRE 544 288 480 288
WIRE 736 288 736 32
WIRE 736 288 640 288
WIRE 80 320 80 288
WIRE 288 320 288 288
WIRE 544 320 544 288
FLAG 80 320 0
FLAG 304 240 G1A
FLAG 560 240 G2A
FLAG 288 320 S1A
FLAG 544 320 S2A
FLAG -736 144 S1A
FLAG -736 64 G1A
FLAG -480 144 S2A
FLAG -480 64 G2A
FLAG -736 -64 S1B
FLAG -736 -144 G1B
FLAG -480 -64 S2B
FLAG -480 -144 G2B
FLAG 304 -16 G1B
FLAG 560 -16 G2B
FLAG 288 64 S1B
FLAG 544 64 S2B
FLAG 880 128 0
FLAG 880 32 out
FLAG 1008 112 0
SYMBOL nmos 384 240 R90
SYMATTR InstName M1
SYMATTR Value fet
SYMBOL voltage -48 192 R0
WINDOW 123 0 0 Left 0
WINDOW 39 0 0 Left 0
SYMATTR InstName V2
SYMATTR Value 5
SYMBOL res 992 16 R0
SYMATTR InstName R1
SYMATTR Value 100
SYMBOL nmos 640 240 R90
SYMATTR InstName M2
SYMATTR Value fet
SYMBOL cap 64 224 R0
SYMATTR InstName C1
SYMATTR Value {Cf}
SYMBOL cap 464 224 R0
SYMATTR InstName C2
SYMATTR Value {Cf}
SYMBOL bv -736 -160 R0
SYMATTR InstName B3
SYMATTR Value V=V(G1A)-V(S1A) < 0.5
SYMBOL bv -480 -160 R0
SYMATTR InstName B4
SYMATTR Value V=V(G2A)-V(S2A) < 0.5
SYMBOL nmos 384 -16 R90
SYMATTR InstName M4
SYMATTR Value fet
SYMBOL nmos 640 -16 R90
SYMATTR InstName M5
SYMATTR Value fet
SYMBOL ind 752 48 R270
WINDOW 0 32 56 VTop 2
WINDOW 3 5 56 VBottom 2
SYMATTR InstName L1
SYMATTR Value 10µ
SYMBOL cap 864 64 R0
SYMATTR InstName C3
SYMATTR Value 10µ
SYMBOL voltage -736 48 R0
WINDOW 123 0 0 Left 0
WINDOW 39 0 0 Left 0
SYMATTR InstName V1
SYMATTR Value PULSE(1 0 0 0 0 0.5u 1u)
SYMBOL voltage -480 48 R0
WINDOW 123 0 0 Left 0
WINDOW 39 0 0 Left 0
SYMATTR InstName V3
SYMATTR Value PULSE(1 0 0.5u 0 0 0.5u 1u)
TEXT -746 468 Left 2 !.tran 0 100u 95u
TEXT -744 400 Left 2 !.model fet VDMOS(Rd=3m Rs=3m Vto=0.5 Kp=60 Cgdmax=1.9n Cgdmin=50p Cgs=3.1n Cjo=1n Is=5.5p Rb=5.7m)
TEXT -744 424 Left 2 !.param Cf=10u
