Version 4
SHEET 1 904 680
WIRE -48 208 -48 16
WIRE 80 288 -48 288
WIRE 288 288 80 288
WIRE 480 288 384 288
WIRE 544 288 480 288
WIRE 736 288 640 288
WIRE 800 288 736 288
WIRE 80 320 80 288
WIRE 288 320 288 288
WIRE 544 320 544 288
WIRE 800 320 800 288
FLAG 80 320 0
FLAG 304 240 G1A
FLAG 560 240 G2A
FLAG 800 320 S3A
FLAG 288 320 S1A
FLAG 544 320 S2A
FLAG -800 112 0
FLAG -400 256 S1A
FLAG -400 176 G1A
FLAG -800 32 PWM
SYMBOL nmos 384 240 R90
SYMATTR InstName M1
SYMATTR Value fet
SYMBOL voltage -48 192 R0
WINDOW 123 0 0 Left 0
WINDOW 39 0 0 Left 0
SYMATTR InstName V2
SYMATTR Value 5
SYMBOL res -304 16 R0
SYMATTR InstName R1
SYMATTR Value 5
SYMBOL nmos 640 240 R90
SYMATTR InstName M2
SYMATTR Value fet
SYMBOL nmos 896 240 R90
SYMATTR InstName M3
SYMATTR Value fet
SYMBOL cap 64 224 R0
SYMATTR InstName C1
SYMATTR Value {Cf}
SYMBOL cap 464 224 R0
SYMATTR InstName C2
SYMATTR Value {Cf}
SYMBOL cap 720 224 R0
SYMATTR InstName C3
SYMATTR Value {Cf}
SYMBOL voltage -800 16 R0
WINDOW 123 0 0 Left 0
WINDOW 39 0 0 Left 0
SYMATTR InstName V0
SYMATTR Value PULSE(0 1 0 0 0 5u 10u)
SYMBOL bv -400 160 R0
SYMATTR InstName B1
SYMATTR Value V=V(PWM)>0.25
TEXT -746 468 Left 2 !.tran 100u
TEXT -744 400 Left 2 !.model fet VDMOS(Rd=3m Rs=3m Vto=1.0 Kp=60 Cgdmax=1.9n Cgdmin=50p Cgs=3.1n Cjo=1n Is=5.5p Rb=5.7m)
TEXT -744 424 Left 2 !.param Cf=10u
