Version 4
SHEET 1 1492 680
WIRE 576 -96 416 -96
WIRE 672 -96 640 -96
WIRE 832 -96 672 -96
WIRE 928 -96 896 -96
WIRE 1056 -96 928 -96
WIRE 288 32 80 32
WIRE 416 32 416 -32
WIRE 416 32 384 32
WIRE 480 32 416 32
WIRE 544 32 480 32
WIRE 672 32 672 -32
WIRE 672 32 640 32
WIRE 736 32 672 32
WIRE 800 32 736 32
WIRE 928 32 928 -32
WIRE 928 32 896 32
WIRE 992 32 928 32
WIRE 1024 32 992 32
WIRE 1136 32 1104 32
WIRE 1264 32 1136 32
WIRE 1136 64 1136 32
WIRE 80 112 80 32
WIRE 288 112 288 32
WIRE 320 112 288 112
WIRE 416 112 416 32
WIRE 416 112 384 112
WIRE 544 112 544 32
WIRE 576 112 544 112
WIRE 672 112 672 32
WIRE 672 112 640 112
WIRE 800 112 800 32
WIRE 832 112 800 112
WIRE 928 112 928 32
WIRE 928 112 896 112
WIRE 480 128 480 32
WIRE 736 128 736 32
WIRE 80 288 80 192
WIRE 256 288 80 288
WIRE 288 288 256 288
WIRE 480 288 480 192
WIRE 480 288 384 288
WIRE 512 288 480 288
WIRE 544 288 512 288
WIRE 736 288 736 192
WIRE 736 288 640 288
WIRE 768 288 736 288
WIRE 800 288 768 288
WIRE 992 288 992 32
WIRE 992 288 896 288
WIRE 80 320 80 288
WIRE 256 368 256 288
WIRE 288 368 256 368
WIRE 384 368 384 288
WIRE 384 368 352 368
WIRE 512 368 512 288
WIRE 544 368 512 368
WIRE 640 368 640 288
WIRE 640 368 608 368
WIRE 768 368 768 288
WIRE 800 368 768 368
WIRE 896 368 896 288
WIRE 896 368 864 368
WIRE 320 448 224 448
WIRE 512 448 384 448
WIRE 576 448 512 448
WIRE 768 448 640 448
WIRE 832 448 768 448
WIRE 1056 448 896 448
WIRE 480 512 480 288
WIRE 512 512 480 512
WIRE 736 512 736 288
WIRE 768 512 736 512
FLAG 80 320 0
FLAG 304 240 G1A
FLAG 560 240 G2A
FLAG 288 288 S1A
FLAG 544 288 S2A
FLAG -736 368 S1A
FLAG -736 288 G1A
FLAG -640 368 S2A
FLAG -640 288 G2A
FLAG -736 160 S1B
FLAG -736 80 G1B
FLAG -640 160 S2B
FLAG -640 80 G2B
FLAG 368 -16 G1B
FLAG 624 -16 G2B
FLAG 384 32 S1B
FLAG 640 32 S2B
FLAG 1136 128 0
FLAG 1136 32 out
FLAG 1264 112 0
FLAG 992 32 sw
FLAG 224 528 0
FLAG 512 448 B2A
FLAG 672 -96 B2B
FLAG 416 -96 B1B
FLAG 816 240 G3A
FLAG 800 288 S3A
FLAG 880 -16 G3B
FLAG 896 32 S3B
FLAG 768 448 B3A
FLAG 928 -96 B3B
FLAG 1056 448 B3B
FLAG -560 368 S3A
FLAG -560 288 G3A
FLAG -560 160 S3B
FLAG -560 80 G3B
SYMBOL nmos 384 240 R90
SYMATTR InstName M1
SYMATTR Value fet
SYMBOL voltage 80 96 R0
WINDOW 123 0 0 Left 0
WINDOW 39 0 0 Left 0
SYMATTR InstName V2
SYMATTR Value 5
SYMBOL res 1248 16 R0
SYMATTR InstName R1
SYMATTR Value 100
SYMBOL nmos 640 240 R90
SYMATTR InstName M2
SYMATTR Value fet
SYMBOL cap 464 128 R0
SYMATTR InstName C2
SYMATTR Value {Cf}
SYMBOL bv -736 64 R0
SYMATTR InstName B3
SYMATTR Value V=V(G1A)-V(S1A) < 0.5
SYMBOL bv -640 64 R0
SYMATTR InstName B4
SYMATTR Value V=V(G2A)-V(S2A) < 0.5
SYMBOL nmos 288 -16 M90
SYMATTR InstName M4
SYMATTR Value fet
SYMBOL nmos 544 -16 M90
SYMATTR InstName M5
SYMATTR Value fet
SYMBOL ind 1008 48 R270
WINDOW 0 32 56 VTop 2
WINDOW 3 5 56 VBottom 2
SYMATTR InstName L1
SYMATTR Value 10µ
SYMBOL cap 1120 64 R0
SYMATTR InstName C3
SYMATTR Value 15µ
SYMBOL voltage -736 272 R0
WINDOW 123 0 0 Left 0
WINDOW 39 0 0 Left 0
SYMATTR InstName V1
SYMATTR Value PULSE(1 0 0 .01u .01u 0.5u 1u)
SYMBOL voltage -640 272 R0
WINDOW 123 0 0 Left 0
WINDOW 39 0 0 Left 0
SYMATTR InstName V3
SYMATTR Value PULSE(1 0 0.333u .01u .01u 0.5u 1u)
SYMBOL voltage 224 432 R0
WINDOW 123 0 0 Left 0
WINDOW 39 0 0 Left 0
SYMATTR InstName V4
SYMATTR Value 6
SYMBOL diode 320 464 R270
WINDOW 0 32 32 VTop 2
WINDOW 3 0 32 VBottom 2
SYMATTR InstName D1
SYMBOL diode 576 464 R270
WINDOW 0 32 32 VTop 2
WINDOW 3 0 32 VBottom 2
SYMATTR InstName D2
SYMBOL diode 640 -112 R90
WINDOW 0 0 32 VBottom 2
WINDOW 3 32 32 VTop 2
SYMATTR InstName D3
SYMBOL cap 496 448 R0
SYMATTR InstName C1
SYMATTR Value {Cb}
SYMBOL cap 656 -96 R0
SYMATTR InstName C4
SYMATTR Value {Cb}
SYMBOL cap 400 -96 R0
SYMATTR InstName C5
SYMATTR Value {Cb}
SYMBOL diode 288 384 R270
WINDOW 0 32 32 VTop 2
WINDOW 3 0 32 VBottom 2
SYMATTR InstName D4
SYMATTR Value md
SYMBOL diode 544 384 R270
WINDOW 0 32 32 VTop 2
WINDOW 3 0 32 VBottom 2
SYMATTR InstName D5
SYMATTR Value md
SYMBOL diode 640 96 R90
WINDOW 0 0 32 VBottom 2
WINDOW 3 32 32 VTop 2
SYMATTR InstName D6
SYMATTR Value md
SYMBOL diode 384 96 R90
WINDOW 0 0 32 VBottom 2
WINDOW 3 32 32 VTop 2
SYMATTR InstName D7
SYMATTR Value md
SYMBOL nmos 896 240 R90
SYMATTR InstName M3
SYMATTR Value fet
SYMBOL nmos 800 -16 M90
SYMATTR InstName M6
SYMATTR Value fet
SYMBOL diode 832 464 R270
WINDOW 0 32 32 VTop 2
WINDOW 3 0 32 VBottom 2
SYMATTR InstName D8
SYMBOL diode 896 -112 R90
WINDOW 0 0 32 VBottom 2
WINDOW 3 32 32 VTop 2
SYMATTR InstName D9
SYMBOL cap 752 448 R0
SYMATTR InstName C6
SYMATTR Value {Cb}
SYMBOL cap 912 -96 R0
SYMATTR InstName C7
SYMATTR Value {Cb}
SYMBOL diode 800 384 R270
WINDOW 0 32 32 VTop 2
WINDOW 3 0 32 VBottom 2
SYMATTR InstName D10
SYMATTR Value md
SYMBOL diode 896 96 R90
WINDOW 0 0 32 VBottom 2
WINDOW 3 32 32 VTop 2
SYMATTR InstName D11
SYMATTR Value md
SYMBOL bv -560 64 R0
SYMATTR InstName B1
SYMATTR Value V=V(G3A)-V(S3A) < 0.5
SYMBOL voltage -560 272 R0
WINDOW 123 0 0 Left 0
WINDOW 39 0 0 Left 0
SYMATTR InstName V5
SYMATTR Value PULSE(1 0 0.666u .01u .01u 0.5u 1u)
SYMBOL cap 720 128 R0
SYMATTR InstName C8
SYMATTR Value {Cf}
TEXT -746 612 Left 2 !.tran 0 1000u 0u
TEXT -744 544 Left 2 !.model fet VDMOS(Rd=3m Rs=3m Vto=0.5 Kp=60 Cgdmax=1.9n Cgdmin=50p Cgs=3.1n Cjo=1n Is=5.5p Rb=5.7m)
TEXT -744 568 Left 2 !.param Cf=7u Cb=0.1u
TEXT -744 520 Left 2 !.model md D(Ron=.01 Roff=1Meg Vfwd=1.5)
TEXT -744 496 Left 2 !.model d D(Ron=.01 Roff=1Meg Vfwd=0.5)
