Version 4
SHEET 1 880 680
WIRE 48 128 -64 128
WIRE 160 128 48 128
WIRE 224 128 160 128
WIRE 384 128 320 128
WIRE 496 128 384 128
WIRE 576 128 496 128
WIRE 160 208 160 192
WIRE 160 208 48 208
WIRE 240 208 240 176
WIRE 240 208 160 208
WIRE 384 208 384 192
WIRE 384 208 240 208
WIRE 496 208 496 192
WIRE 576 208 496 208
WIRE 496 304 496 208
WIRE -64 384 -64 288
WIRE 48 384 -64 384
WIRE -64 432 -64 384
FLAG -64 432 0
FLAG 576 128 Vout
FLAG -64 128 Vin
FLAG 240 208 Vg
FLAG 496 304 0
FLAG 0 448 0
SYMBOL cap 144 128 R0
SYMATTR InstName C1
SYMATTR Value 470n
SYMBOL cap 368 128 R0
SYMATTR InstName C2
SYMATTR Value 10n
SYMBOL pmos 320 176 M270
SYMATTR InstName M1
SYMATTR Value AO6407
SYMBOL res 32 112 R0
SYMATTR InstName R1
SYMATTR Value 200k
SYMBOL res 32 192 R0
SYMATTR InstName R2
SYMATTR Value 200k
SYMBOL voltage -64 192 R0
WINDOW 3 -363 77 Left 2
WINDOW 123 0 0 Left 0
WINDOW 39 0 0 Left 0
SYMATTR InstName V1
SYMATTR Value PULSE(0 12 0 0.000001 0 1)
SYMBOL res 560 112 R0
SYMATTR InstName R3
SYMATTR Value 1000
SYMBOL cap 480 128 R0
SYMATTR InstName C3
SYMATTR Value 200µ
SYMBOL voltage -64 112 R0
WINDOW 3 -363 78 Left 2
WINDOW 123 0 0 Left 0
WINDOW 39 0 0 Left 0
SYMATTR InstName V2
SYMATTR Value PULSE(0 8 0.050 .000001 0 1)
SYMBOL nmos 0 288 R0
SYMATTR InstName M2
SYMATTR Value AO6408
SYMBOL voltage 0 352 R0
WINDOW 123 0 0 Left 0
WINDOW 39 0 0 Left 0
SYMATTR InstName V3
SYMATTR Value PULSE(3.3 0 .01 .000001 .000001 .045)
TEXT -194 330 Left 2 !.tran .1
